Version 4
SHEET 1 3216 1252
WIRE 32 0 0 0
WIRE 144 0 112 0
WIRE 272 0 208 0
WIRE -976 128 -976 80
WIRE -512 128 -560 128
WIRE -384 128 -448 128
WIRE -320 128 -384 128
WIRE 0 128 0 0
WIRE 0 128 32 96
WIRE 0 128 -64 128
WIRE 128 128 0 128
WIRE 448 128 480 96
WIRE 448 128 384 128
WIRE 560 128 448 128
WIRE 704 128 624 128
WIRE -384 160 -384 128
WIRE 0 160 0 128
WIRE 448 160 448 128
WIRE 704 160 704 128
WIRE -976 240 -976 208
WIRE -384 256 -384 224
WIRE -192 256 -192 224
WIRE -192 256 -384 256
WIRE 0 256 0 224
WIRE 0 256 -192 256
WIRE 256 256 256 224
WIRE 448 256 448 224
WIRE 448 256 256 256
WIRE -192 288 -192 256
WIRE 256 288 256 256
WIRE 704 288 704 240
WIRE -912 592 -944 592
WIRE -848 592 -912 592
WIRE -736 592 -848 592
WIRE -848 624 -848 592
WIRE -912 640 -912 592
WIRE -736 672 -736 592
WIRE -480 672 -736 672
WIRE -448 704 -768 704
WIRE -848 720 -848 704
WIRE -464 720 -848 720
WIRE -848 736 -848 720
WIRE -720 768 -784 768
WIRE -480 768 -480 672
WIRE -480 768 -496 768
WIRE -848 832 -848 816
WIRE -768 832 -768 704
WIRE -768 832 -848 832
WIRE -720 832 -768 832
WIRE -464 832 -464 720
WIRE -464 832 -496 832
WIRE -848 848 -848 832
WIRE -384 864 -384 832
WIRE -320 864 -352 864
WIRE -224 864 -256 864
WIRE -64 864 -224 864
WIRE -720 896 -752 896
WIRE -448 896 -448 704
WIRE -448 896 -496 896
WIRE -224 912 -224 864
WIRE -64 912 -64 864
WIRE -736 960 -736 672
WIRE -720 960 -736 960
WIRE -384 960 -384 928
WIRE -384 960 -496 960
WIRE -752 1024 -752 896
WIRE -352 1024 -352 864
WIRE -352 1024 -752 1024
WIRE -224 1040 -224 976
WIRE -176 1040 -224 1040
WIRE -64 1040 -64 976
WIRE -64 1040 -112 1040
WIRE -32 1040 -64 1040
WIRE -912 1056 -912 704
WIRE -848 1056 -848 912
WIRE -848 1056 -912 1056
WIRE -784 1056 -784 768
WIRE -784 1056 -848 1056
WIRE -224 1072 -224 1040
WIRE -848 1088 -848 1056
FLAG -192 288 0
FLAG 256 288 0
FLAG 272 0 0
FLAG 704 288 0
FLAG -848 1088 0
FLAG -224 1072 0
FLAG 32 96 +5V
IOPIN 32 96 Out
FLAG 480 96 +3.3V
IOPIN 480 96 Out
FLAG -32 1040 -12V
IOPIN -32 1040 Out
FLAG -944 592 +12V
FLAG -976 240 0
FLAG -976 80 +12V
FLAG -560 128 +12V
FLAG -384 832 0
SYMBOL PowerProducts\\LT1117-3.3 256 128 R0
SYMATTR InstName U1
SYMBOL PowerProducts\\LT1117-5 -192 128 R0
SYMATTR InstName U2
SYMBOL polcap 432 160 R0
SYMATTR InstName C3
SYMATTR Value 47µ
SYMBOL diode -512 144 R270
WINDOW 0 32 32 VTop 2
WINDOW 3 0 32 VBottom 2
SYMATTR InstName D1
SYMATTR Value 1N4148
SYMBOL diode 144 -16 M90
WINDOW 0 0 32 VBottom 2
WINDOW 3 32 32 VTop 2
SYMATTR InstName D3
SYMATTR Value 1N4148
SYMBOL res 128 -16 R90
WINDOW 0 0 56 VBottom 2
WINDOW 3 32 56 VTop 2
SYMATTR InstName R1
SYMATTR Value 330
SYMBOL res 688 144 R0
SYMATTR InstName R2
SYMATTR Value 1k
SYMBOL diode 560 112 M90
WINDOW 0 0 32 VBottom 2
WINDOW 3 32 32 VTop 2
SYMATTR InstName D2
SYMATTR Value 1N4148
SYMBOL Misc\\NE555 -608 864 R0
SYMATTR InstName U3
SYMBOL res -864 608 R0
SYMATTR InstName R3
SYMATTR Value 1k
SYMBOL res -864 720 R0
SYMATTR InstName R4
SYMATTR Value 10k
SYMBOL polcap -320 848 M90
WINDOW 0 0 32 VBottom 2
WINDOW 3 32 32 VTop 2
SYMATTR InstName C6
SYMATTR Value 10µ
SYMBOL polcap -176 1024 M90
WINDOW 0 0 32 VBottom 2
WINDOW 3 32 32 VTop 2
SYMATTR InstName C8
SYMATTR Value 10µ
SYMBOL diode -240 912 R0
SYMATTR InstName D6
SYMATTR Value 1N4148
SYMBOL diode -48 976 R180
WINDOW 0 24 64 Left 2
WINDOW 3 -79 0 Left 2
SYMATTR InstName D7
SYMATTR Value 1N4148
SYMBOL cap -864 848 R0
SYMATTR InstName C9
SYMATTR Value 0.01µ
SYMBOL cap -400 160 R0
SYMATTR InstName C1
SYMATTR Value 47µ
SYMBOL cap -16 160 R0
SYMATTR InstName C2
SYMATTR Value 47µ
SYMBOL polcap -928 640 R0
SYMATTR InstName C4
SYMATTR Value 10µ
SYMBOL cap -368 928 R180
WINDOW 0 24 56 Left 2
WINDOW 3 24 8 Left 2
SYMATTR InstName C5
SYMATTR Value 0.01µ
SYMBOL voltage -976 112 R0
WINDOW 123 0 0 Left 0
WINDOW 39 0 0 Left 0
SYMATTR InstName V1
SYMATTR Value 12
TEXT -1216 352 Left 2 !.tran 0 0.5 0 0.1 startup
TEXT -672 -128 Left 4 ;Fuente de alimentación +5V y +3.3V
TEXT -1256 -176 Left 4 ;Fuente de \nalimentación +12V
TEXT -1248 456 Left 4 ;Fuente de \nalimentación -12V
RECTANGLE Normal 816 384 -672 -96 2
RECTANGLE Normal -720 384 -1248 -96 2
RECTANGLE Normal 240 1200 -1248 528 2
