Version 4
SHEET 1 6732 740
WIRE 352 16 336 16
WIRE 880 16 816 16
WIRE 336 128 336 16
WIRE 336 128 176 128
WIRE 352 128 336 128
WIRE 704 128 688 128
WIRE 720 128 704 128
WIRE 352 160 288 160
WIRE 720 160 688 160
WIRE 176 176 176 128
WIRE 288 192 288 160
WIRE 704 256 704 128
WIRE 720 256 704 256
WIRE 1248 256 1184 256
WIRE 176 288 176 256
WIRE 176 384 176 368
FLAG 176 384 0
FLAG 288 192 0
FLAG 880 16 Vm-Nodo-1
FLAG 1248 256 Vm-Nodo-2
SYMBOL Unidad-de-Neurona-FHN 512 144 R0
SYMATTR InstName FHN1
SYMBOL Unidad-de-Neurona-FHN 880 144 R0
SYMATTR InstName FHN2
SYMBOL voltage 144 592 R0
WINDOW 123 0 0 Left 0
WINDOW 39 0 0 Left 0
WINDOW 3 24 44 Invisible 2
SYMATTR Value PWL(0 0 5m 0 5.0000001m 0.5 15m 0.5 15.000001m 0 40m 0 40.000001m 1 70m 1 70.00001m 0 130m 0 130.00001m 2 150m 2 150.00001m 0 190m 0 190.00001m 3 200m 3 200.00001m 0 240m 0 240.00001m 5 250m 5 250.00001m 0 290m 0 290.00001m 5 330m 5 330.00001m 0 350m 0 350.00001m 5 400m 5 400.00001m 0 430m 0 430.00001m 7 450m 7 450.00001m 0 480m 0 480.00001m 7 520m 7 520.00001m 0 550m 0 550.00001m 1 610m 1 610.00001m 0 700m 0 700.00001m 0.5 760m 0.5 760.00001m 0 780m 0 780.00001m 1 870.m 1 870.00001m 0)
SYMATTR InstName V1
SYMBOL res 160 160 R0
SYMATTR InstName R1
SYMATTR Value 100K
SYMBOL Modulo-Procesamiento 576 16 R0
SYMATTR InstName MP1
SYMBOL Modulo-Procesamiento 944 256 R0
SYMATTR InstName MP2
SYMBOL voltage 624 592 R0
WINDOW 123 0 0 Left 0
WINDOW 39 0 0 Left 0
WINDOW 3 24 44 Invisible 2
SYMATTR Value PWL(0 0 5m 0 5.0000001m 0.5 15m 0.5 15.000001m 0 70m 0 70.000001m 1 80m 1 80.000001m 0 135m 0 135.000001m 2 145m 2 145.000001m 0 200m 0 200.000001m 3 210m 3 210.000001m 0 265m 0 265.000001m 4 275m 4 275.000001m 0 330m 0 330.00001m 5 340m 5 340.000001m 0)
SYMATTR InstName V2
SYMBOL voltage 176 272 R0
WINDOW 123 0 0 Left 0
WINDOW 39 0 0 Left 0
WINDOW 3 24 44 Invisible 2
SYMATTR Value PWL(0 0 5m 0 5.0000001m 0.5 15m 0.5 15.000001m 0 40m 0 40.000001m 1 70m 1 70.00001m 0 130m 0 130.00001m 2 150m 2 150.00001m 0 190m 0 190.00001m 3 200m 3 200.00001m 0 240m 0 240.00001m 5 250m 5 250.00001m 0 290m 0 290.00001m 5 330m 5 330.00001m 0 350m 0 350.00001m 5 400m 5 400.00001m 0 430m 0 430.00001m 7 450m 7 450.00001m 0 480m 0 480.00001m 7 520m 7 520.00001m 0 550m 0 550.00001m 1 610m 1 610.00001m 0 700m 0 700.00001m 0.5 760m 0.5 760.00001m 0 780m 0 780.00001m 1 870.m 1 870.00001m 0)
SYMATTR InstName V3
TEXT 112 464 Left 2 !.tran 0 0.5 0 0.001
TEXT 64 -224 Left 4 ;Axón modular
TEXT 208 648 Left 2 ;Pruebas de amplitud de \nla estimualción\n(amplitudes al azar)
TEXT 688 648 Left 2 ;Pruebas de amplitud de \nla estimualción\n(amplitudes seleccionadas)
TEXT 80 544 Left 2 ;Copiar y pega la fuente en el espacio indicado para simular los distintos casos:
TEXT 64 -160 Left 2 ;A continuación se muestra un axón de neurona con recubrimiento de mielina, conformado por 2 unidades del modelo de célula de neurona FitzHugh-Nagumo.\nLos bloques FHNX corresponden a las unidades del modelo de célula de neurona y los bloques MPX corresponden alos módulos de acondicionamiento de la señal.
TEXT 240 408 Left 1 ;Eliminar esta fuente y pegar la copia \nde la fuente que se quiere simular.
RECTANGLE Normal 1392 480 64 -96 2
RECTANGLE Normal 560 736 64 576 2
RECTANGLE Normal 1040 736 560 576 2
CIRCLE Normal 256 416 96 256 2
