Version 4
SHEET 1 6732 740
WIRE 1792 0 1776 0
WIRE 2320 0 2256 0
WIRE 320 16 304 16
WIRE 848 16 784 16
WIRE 1056 16 1040 16
WIRE 1584 16 1520 16
WIRE 304 128 304 16
WIRE 304 128 144 128
WIRE 320 128 304 128
WIRE 672 128 656 128
WIRE 688 128 672 128
WIRE 1040 128 1040 16
WIRE 1040 128 1024 128
WIRE 1056 128 1040 128
WIRE 1408 128 1392 128
WIRE 1424 128 1408 128
WIRE 1776 128 1776 0
WIRE 1776 128 1760 128
WIRE 1792 128 1776 128
WIRE 320 160 256 160
WIRE 688 160 656 160
WIRE 1056 160 1024 160
WIRE 1424 160 1392 160
WIRE 1792 160 1760 160
WIRE 144 176 144 128
WIRE 256 192 256 160
WIRE 672 256 672 128
WIRE 688 256 672 256
WIRE 1216 256 1152 256
WIRE 1408 256 1408 128
WIRE 1424 256 1408 256
WIRE 1952 256 1888 256
WIRE 144 288 144 256
WIRE 144 384 144 368
FLAG 144 384 0
FLAG 256 192 0
FLAG 848 16 Vm-Nodo-1
FLAG 1216 256 Vm-Nodo-2
FLAG 1584 16 Vm-Nodo-3
FLAG 1952 256 Vm-Nodo-4
FLAG 2320 0 Vm-Nodo-5
SYMBOL Unidad-de-Neurona-FHN 480 144 R0
SYMATTR InstName FHN1
SYMBOL Unidad-de-Neurona-FHN 848 144 R0
SYMATTR InstName FHN2
SYMBOL voltage 128 592 R0
WINDOW 123 0 0 Left 0
WINDOW 39 0 0 Left 0
WINDOW 3 24 44 Invisible 2
SYMATTR Value PWL(0 0 5m 0 5.0000001m 0.5 15m 0.5 15.000001m 0 40m 0 40.000001m 1 70m 1 70.00001m 0 130m 0 130.00001m 2 150m 2 150.00001m 0 190m 0 190.00001m 3 200m 3 200.00001m 0 240m 0 240.00001m 5 250m 5 250.00001m 0 290m 0 290.00001m 5 330m 5 330.00001m 0 350m 0 350.00001m 5 400m 5 400.00001m 0 430m 0 430.00001m 7 450m 7 450.00001m 0 480m 0 480.00001m 7 520m 7 520.00001m 0 550m 0 550.00001m 1 610m 1 610.00001m 0 700m 0 700.00001m 0.5 760m 0.5 760.00001m 0 780m 0 780.00001m 1 870.m 1 870.00001m 0)
SYMATTR InstName V1
SYMBOL res 128 160 R0
SYMATTR InstName R1
SYMATTR Value 100K
SYMBOL Unidad-de-Neurona-FHN 1216 144 R0
SYMATTR InstName FHN3
SYMBOL Unidad-de-Neurona-FHN 1584 144 R0
SYMATTR InstName FHN4
SYMBOL Unidad-de-Neurona-FHN 1952 144 R0
SYMATTR InstName FHN5
SYMBOL Modulo-Procesamiento 544 16 R0
SYMATTR InstName MP1
SYMBOL Modulo-Procesamiento 912 256 R0
SYMATTR InstName MP2
SYMBOL Modulo-Procesamiento 1280 16 R0
SYMATTR InstName MP3
SYMBOL Modulo-Procesamiento 1648 256 R0
SYMATTR InstName MP4
SYMBOL Modulo-Procesamiento 2016 0 R0
SYMATTR InstName MP5
SYMBOL voltage 608 592 R0
WINDOW 123 0 0 Left 0
WINDOW 39 0 0 Left 0
WINDOW 3 24 44 Invisible 2
SYMATTR Value PWL(0 0 5m 0 5.0000001m 0.5 15m 0.5 15.000001m 0 70m 0 70.000001m 1 80m 1 80.000001m 0 135m 0 135.000001m 2 145m 2 145.000001m 0 200m 0 200.000001m 3 210m 3 210.000001m 0 265m 0 265.000001m 4 275m 4 275.000001m 0 330m 0 330.00001m 5 340m 5 340.000001m 0)
SYMATTR InstName V2
SYMBOL voltage 144 272 R0
WINDOW 123 0 0 Left 0
WINDOW 39 0 0 Left 0
WINDOW 3 24 44 Invisible 2
SYMATTR Value PWL(0 0 5m 0 5.0000001m 0.5 15m 0.5 15.000001m 0 70m 0 70.000001m 1 80m 1 80.000001m 0 135m 0 135.000001m 2 145m 2 145.000001m 0 200m 0 200.000001m 3 210m 3 210.000001m 0 265m 0 265.000001m 4 275m 4 275.000001m 0 330m 0 330.00001m 5 340m 5 340.000001m 0)
SYMATTR InstName V3
TEXT 80 464 Left 2 !.tran 0 0.5 0 0.001
TEXT 64 -224 Left 4 ;Axón modular
TEXT 192 648 Left 2 ;Pruebas de amplitud de \nla estimualción\n(amplitudes al azar)
TEXT 672 648 Left 2 ;Pruebas de amplitud de \nla estimualción\n(amplitudes seleccionadas)
TEXT 64 544 Left 2 ;Copiar y pega la fuente en el espacio indicado para simular los distintos casos:
TEXT 64 -160 Left 2 ;A continuación se muestra un axón de neurona con recubrimiento de mielina, conformado por 5 unidades del modelo de célula de neurona FitzHugh-Nagumo.\nLos bloques FHNX corresponden a las unidades del modelo de célula de neurona y los bloques MPX corresponden alos módulos de acondicionamiento de la señal.
TEXT 208 408 Left 1 ;Eliminar esta fuente y pegar la copia \nde la fuente que se quiere simular.
RECTANGLE Normal 2528 480 48 -96 2
RECTANGLE Normal 544 736 48 576 2
RECTANGLE Normal 1024 736 544 576 2
CIRCLE Normal 224 416 64 256 2
