Version 4
SHEET 1 6732 740
WIRE 480 0 448 0
WIRE 608 0 592 0
WIRE 720 0 688 0
WIRE 848 0 832 0
WIRE 960 0 928 0
WIRE 1088 0 1072 0
WIRE 1200 0 1168 0
WIRE 1328 0 1312 0
WIRE 1440 0 1408 0
WIRE 1568 0 1552 0
WIRE 448 80 448 0
WIRE 448 80 288 80
WIRE 528 80 448 80
WIRE 688 80 688 0
WIRE 688 80 608 80
WIRE 768 80 688 80
WIRE 928 80 928 0
WIRE 928 80 848 80
WIRE 1008 80 928 80
WIRE 1168 80 1168 0
WIRE 1168 80 1088 80
WIRE 1248 80 1168 80
WIRE 1408 80 1408 0
WIRE 1408 80 1328 80
WIRE 288 128 288 80
WIRE 448 128 448 80
WIRE 688 128 688 80
WIRE 928 128 928 80
WIRE 1168 128 1168 80
WIRE 1408 128 1408 80
WIRE 288 224 288 208
WIRE 288 240 288 224
WIRE 448 272 448 224
WIRE 528 272 448 272
WIRE 688 272 688 224
WIRE 688 272 608 272
WIRE 768 272 688 272
WIRE 928 272 928 224
WIRE 928 272 848 272
WIRE 1008 272 928 272
WIRE 1168 272 1168 224
WIRE 1168 272 1088 272
WIRE 1248 272 1168 272
WIRE 1408 272 1408 224
WIRE 1408 272 1328 272
WIRE 288 336 288 320
WIRE 448 336 448 272
FLAG 288 336 0
FLAG 448 336 0
FLAG 608 0 Vm-1
FLAG 848 0 Vm-2
FLAG 1088 0 Vm-3
FLAG 1328 0 Vm-4
FLAG 1568 0 Vm-5
FLAG 288 224 STIM
SYMBOL voltage 128 592 R0
WINDOW 123 0 0 Left 0
WINDOW 39 0 0 Left 0
WINDOW 3 24 44 Invisible 2
SYMATTR Value PWL(0 0 5m 0 5.0000001m 0.5 15m 0.5 15.000001m 0 40m 0 40.000001m 1 70m 1 70.00001m 0 130m 0 130.00001m 2 150m 2 150.00001m 0 190m 0 190.00001m 3 200m 3 200.00001m 0 240m 0 240.00001m 5 250m 5 250.00001m 0 290m 0 290.00001m 5 330m 5 330.00001m 0 350m 0 350.00001m 5 400m 5 400.00001m 0 430m 0 430.00001m 7 450m 7 450.00001m 0 480m 0 480.00001m 7 520m 7 520.00001m 0 550m 0 550.00001m 1 610m 1 610.00001m 0 700m 0 700.00001m 0.5 760m 0.5 760.00001m 0 780m 0 780.00001m 1 870.m 1 870.00001m 0)
SYMATTR InstName V1
SYMBOL res 272 112 R0
SYMATTR InstName R1
SYMATTR Value 100K
SYMBOL voltage 608 592 R0
WINDOW 123 0 0 Left 0
WINDOW 39 0 0 Left 0
WINDOW 3 24 44 Invisible 2
SYMATTR Value PWL(0 0 5m 0 5.0000001m 0.5 15m 0.5 15.000001m 0 70m 0 70.000001m 1 80m 1 80.000001m 0 135m 0 135.000001m 2 145m 2 145.000001m 0 200m 0 200.000001m 3 210m 3 210.000001m 0 265m 0 265.000001m 4 275m 4 275.000001m 0 330m 0 330.00001m 5 340m 5 340.000001m 0)
SYMATTR InstName V2
SYMBOL voltage 288 224 R0
WINDOW 123 0 0 Left 0
WINDOW 39 0 0 Left 0
WINDOW 3 24 44 Invisible 2
SYMATTR Value PWL(0 0 5m 0 5.0000001m 0.5 15m 0.5 15.000001m 0 70m 0 70.000001m 1 80m 1 80.000001m 0 135m 0 135.000001m 2 145m 2 145.000001m 0 200m 0 200.000001m 3 210m 3 210.000001m 0 265m 0 265.000001m 4 275m 4 275.000001m 0 330m 0 330.00001m 5 340m 5 340.000001m 0)
SYMATTR InstName V3
SYMBOL Unidad-FHN 448 176 R0
SYMATTR InstName FHN1
SYMBOL res 624 64 R90
WINDOW 0 0 56 VBottom 2
WINDOW 3 32 56 VTop 2
SYMATTR InstName R2
SYMATTR Value 50K
SYMBOL res 624 256 R90
WINDOW 0 0 56 VBottom 2
WINDOW 3 32 56 VTop 2
SYMATTR InstName R3
SYMATTR Value 100
SYMBOL Unidad-FHN 688 176 R0
SYMATTR InstName FHN2
SYMBOL res 864 64 R90
WINDOW 0 0 56 VBottom 2
WINDOW 3 32 56 VTop 2
SYMATTR InstName R4
SYMATTR Value 50K
SYMBOL res 864 256 R90
WINDOW 0 0 56 VBottom 2
WINDOW 3 32 56 VTop 2
SYMATTR InstName R5
SYMATTR Value 100
SYMBOL Unidad-FHN 928 176 R0
SYMATTR InstName FHN3
SYMBOL res 1104 64 R90
WINDOW 0 0 56 VBottom 2
WINDOW 3 32 56 VTop 2
SYMATTR InstName R6
SYMATTR Value 50K
SYMBOL res 1104 256 R90
WINDOW 0 0 56 VBottom 2
WINDOW 3 32 56 VTop 2
SYMATTR InstName R7
SYMATTR Value 100
SYMBOL Unidad-FHN 1168 176 R0
SYMATTR InstName FHN4
SYMBOL res 1344 64 R90
WINDOW 0 0 56 VBottom 2
WINDOW 3 32 56 VTop 2
SYMATTR InstName R9
SYMATTR Value 50K
SYMBOL res 1344 256 R90
WINDOW 0 0 56 VBottom 2
WINDOW 3 32 56 VTop 2
SYMATTR InstName R10
SYMATTR Value 100
SYMBOL Unidad-FHN 1408 176 R0
SYMATTR InstName FHN5
SYMBOL Modulo-Procesamiento 528 0 R0
SYMATTR InstName MA1
SYMBOL Modulo-Procesamiento 768 0 R0
SYMATTR InstName MA2
SYMBOL Modulo-Procesamiento 1008 0 R0
SYMATTR InstName MA3
SYMBOL Modulo-Procesamiento 1248 0 R0
SYMATTR InstName MA4
SYMBOL Modulo-Procesamiento 1488 0 R0
SYMATTR InstName MA5
TEXT 80 464 Left 2 !.tran 0 0.37 0 0.001
TEXT 64 -224 Left 4 ;Axón modular
TEXT 192 648 Left 2 ;Pruebas de amplitud de \nla estimualción\n(amplitudes al azar)
TEXT 672 648 Left 2 ;Pruebas de amplitud de \nla estimualción\n(amplitudes seleccionadas)
TEXT 64 544 Left 2 ;Copiar y pega la fuente en el espacio indicado para simular los distintos casos:
TEXT 64 -160 Left 2 ;A continuación se muestra un axón de neurona con recubrimiento de mielina, conformado por 5 unidades del modelo de célula de neurona FitzHugh-Nagumo.\nLos bloques FHNX corresponden a las unidades del modelo de célula de neurona y los bloques MPX corresponden alos módulos de acondicionamiento de la señal.
TEXT 72 416 Left 1 ;Eliminar esta fuente y pegar la copia \nde la fuente que se quiere simular.
RECTANGLE Normal 2528 480 48 -96 2
RECTANGLE Normal 544 736 48 576 2
RECTANGLE Normal 1024 736 544 576 2
